REMARK  0 active torsions:
REMARK  status: ('A' for Active; 'I' for Inactive)
REMARK       I    between atoms: C1_1  and  C22_22 
REMARK       I    between atoms: C2_2  and  C6_6 
REMARK       I    between atoms: C13_13  and  C14_14 
ROOT
HETATM    1  C1  PN6 B 501      66.727  60.274  65.320  1.00 28.45     0.047 A 
HETATM    2  C2  PN6 B 501      68.019  60.312  64.839  1.00 30.85     0.083 A 
HETATM    3  N3  PN6 B 501      68.077  61.330  64.008  1.00 31.22    -0.242 NA
HETATM    4  C4  PN6 B 501      66.883  61.925  63.937  1.00 29.31     0.208 A 
HETATM    5  N5  PN6 B 501      66.066  61.257  64.760  1.00 31.70    -0.352 N 
HETATM    6  C6  PN6 B 501      69.223  59.390  65.173  1.00 30.70     0.069 C 
HETATM    7  C7  PN6 B 501      70.213  59.232  64.269  1.00 30.63     0.106 A 
HETATM    8  C8  PN6 B 501      71.204  58.070  64.391  1.00 28.92     0.273 A 
HETATM    9  N9  PN6 B 501      72.256  57.891  63.389  1.00 32.76    -0.317 N 
HETATM   10  C10 PN6 B 501      72.366  58.830  62.272  1.00 34.80     0.104 A 
HETATM   11  C11 PN6 B 501      71.376  59.995  62.170  1.00 32.13     0.273 A 
HETATM   12  N12 PN6 B 501      70.343  60.173  63.166  1.00 26.84    -0.317 N 
HETATM   13  C13 PN6 B 501      73.304  58.738  61.320  1.00 42.13     0.046 C 
HETATM   14  C14 PN6 B 501      74.119  57.463  61.027  1.00 50.02    -0.034 A 
HETATM   15  C15 PN6 B 501      73.593  56.201  61.268  1.00 52.73     0.011 A 
HETATM   16  C16 PN6 B 501      74.348  55.070  60.987  1.00 53.44     0.001 A 
HETATM   17  C17 PN6 B 501      75.622  55.199  60.460  1.00 57.18     0.000 A 
HETATM   18  C18 PN6 B 501      76.148  56.459  60.211  1.00 53.09     0.001 A 
HETATM   19  C19 PN6 B 501      75.395  57.590  60.493  1.00 49.64     0.011 A 
HETATM   20  O20 PN6 B 501      71.092  57.322  65.304  1.00 33.86    -0.266 OA
HETATM   21  O21 PN6 B 501      71.464  60.754  61.264  1.00 36.21    -0.266 OA
HETATM   22  C22 PN6 B 501      66.080  59.280  66.326  1.00 39.19    -0.006 C 
HETATM   23  C23 PN6 B 501      64.574  59.564  66.382  1.00 37.52     0.021 C 
HETATM   24  C24 PN6 B 501      66.668  59.473  67.721  1.00 41.24     0.021 C 
HETATM   25  C25 PN6 B 501      66.288  57.839  65.862  1.00 37.09     0.021 C 
HETATM   26  H12 PN6 B 501      65.238  61.444  64.900  1.00 38.05     0.166 HD
HETATM   27  H13 PN6 B 501      72.808  57.235  63.456  1.00 39.32     0.169 HD
HETATM   28  H14 PN6 B 501      69.802  60.839  63.107  1.00 32.22     0.169 HD
ENDROOT
TORSDOF 3
